Version 4
SHEET 1 4648 30344
WIRE 1680 -336 1456 -336
WIRE 1856 -336 1680 -336
WIRE 2032 -336 1856 -336
WIRE -1584 -320 -1680 -320
WIRE -1248 -320 -1392 -320
WIRE -1136 -320 -1168 -320
WIRE -1120 -320 -1136 -320
WIRE -2240 -304 -2352 -304
WIRE -1584 -288 -1648 -288
WIRE -1312 -288 -1392 -288
WIRE 1456 -288 1456 -336
WIRE 1680 -288 1680 -336
WIRE -1392 -272 -1392 -288
WIRE -1584 -256 -1632 -256
WIRE -2352 -240 -2352 -304
WIRE -1760 -224 -1808 -224
WIRE -1648 -224 -1648 -288
WIRE -1648 -224 -1680 -224
WIRE -1584 -224 -1600 -224
WIRE -1312 -224 -1312 -288
WIRE -1248 -224 -1312 -224
WIRE -1136 -224 -1136 -320
WIRE -1136 -224 -1168 -224
WIRE 1856 -224 1856 -336
WIRE -1808 -192 -1808 -224
WIRE -1632 -176 -1632 -256
WIRE -320 -176 -432 -176
WIRE -128 -176 -240 -176
WIRE 48 -176 -128 -176
WIRE 800 -176 800 -208
WIRE 800 -176 128 -176
WIRE 1088 -176 800 -176
WIRE 1456 -176 1456 -224
WIRE 1456 -176 1248 -176
WIRE -1600 -144 -1600 -224
WIRE 1088 -144 1088 -176
WIRE 1248 -144 1248 -176
WIRE -2352 -128 -2352 -160
WIRE 2032 -112 2032 -336
WIRE -2240 -64 -2352 -64
WIRE -432 -32 -432 -176
WIRE -320 -32 -432 -32
WIRE -128 -32 -128 -176
WIRE -128 -32 -256 -32
WIRE 48 -32 -128 -32
WIRE 304 -32 304 -64
WIRE 304 -32 128 -32
WIRE 1088 -32 1088 -64
WIRE 1088 -32 304 -32
WIRE 1248 -32 1248 -64
WIRE 1680 -32 1680 -224
WIRE 1680 -32 1248 -32
WIRE 1856 -32 1856 -160
WIRE 304 -16 304 -32
WIRE 800 -16 800 -176
WIRE -2352 0 -2352 -64
WIRE -1584 32 -1680 32
WIRE -1248 32 -1392 32
WIRE -1136 32 -1168 32
WIRE -1120 32 -1136 32
WIRE 1456 32 1456 -176
WIRE 1680 32 1680 -32
WIRE -432 48 -432 -32
WIRE -1584 64 -1648 64
WIRE -1312 64 -1392 64
WIRE -128 64 -128 -32
WIRE -1392 80 -1392 64
WIRE -1584 96 -1632 96
WIRE -2352 112 -2352 80
WIRE -1760 128 -1808 128
WIRE -1648 128 -1648 64
WIRE -1648 128 -1680 128
WIRE -1584 128 -1600 128
WIRE -1312 128 -1312 64
WIRE -1248 128 -1312 128
WIRE -1136 128 -1136 32
WIRE -1136 128 -1168 128
WIRE -1808 160 -1808 128
WIRE -1632 176 -1632 96
WIRE 1456 176 1456 96
WIRE 1648 176 1456 176
WIRE 1680 176 1680 96
WIRE 1680 176 1648 176
WIRE 1856 176 1856 48
WIRE 1856 176 1680 176
WIRE 2032 176 2032 -48
WIRE 2032 176 1856 176
WIRE -1600 208 -1600 128
WIRE 1648 224 1648 176
WIRE -432 240 -432 128
WIRE -224 240 -432 240
WIRE -128 240 -128 128
WIRE -128 240 -224 240
WIRE 304 240 304 144
WIRE 304 240 -128 240
WIRE 800 240 800 144
WIRE 800 240 304 240
WIRE -224 288 -224 240
FLAG -224 288 0
FLAG 1648 224 0
FLAG -2352 112 0
FLAG -2240 -64 pwm2
FLAG -2352 -128 0
FLAG -2240 -304 pwm1
FLAG 208 64 gate_1
FLAG 704 64 gate_2
FLAG 304 -64 ds1
FLAG 800 -208 ds2
FLAG 1856 -336 out
FLAG -1760 -320 pwm1
FLAG -1808 -192 0
FLAG -1632 -176 0
FLAG -1600 -64 0
FLAG -1120 -320 gate_1
FLAG -1760 32 pwm2
FLAG -1808 160 0
FLAG -1632 176 0
FLAG -1600 288 0
FLAG -1120 32 gate_2
FLAG -128 -176 IN
SYMBOL cap -144 64 R0
SYMATTR InstName C1
SYMATTR Value 14µF
SYMBOL ind 32 -48 M90
WINDOW 0 5 56 VBottom 2
WINDOW 3 32 56 VTop 2
SYMATTR InstName L1
SYMATTR Value 320µH
SYMBOL ind 32 -192 M90
WINDOW 0 5 56 VBottom 2
WINDOW 3 32 56 VTop 2
SYMATTR InstName L2
SYMATTR Value 320µH
SYMBOL ind2 1264 -160 M0
WINDOW 0 39 37 Left 2
WINDOW 3 37 80 Left 2
SYMATTR InstName L4
SYMATTR Value {Ls}
SYMATTR Type ind
SYMBOL diode 1472 -224 R180
WINDOW 0 24 64 Left 2
WINDOW 3 24 0 Left 2
SYMATTR InstName D1
SYMATTR Value VS-E5TX0812
SYMBOL diode 1472 96 R180
WINDOW 0 24 64 Left 2
WINDOW 3 24 0 Left 2
SYMATTR InstName D2
SYMATTR Value VS-E5TX0812
SYMBOL voltage -2352 -16 R0
SYMATTR InstName V2
SYMATTR Value PULSE(0 {Vgs} 6u {ts} {ts} {D} 10u)
SYMBOL voltage -2352 -256 R0
SYMATTR InstName V3
SYMATTR Value PULSE(0 {Vgs} 1u {ts} {ts} {D} 10u)
SYMBOL voltage -432 32 R0
SYMATTR InstName V1
SYMATTR Value 40V
SYMBOL ind2 1072 -160 R0
SYMATTR InstName L3
SYMATTR Value {Lp}
SYMATTR Type ind
SYMBOL diode 1696 96 R180
WINDOW 0 24 64 Left 2
WINDOW 3 24 0 Left 2
SYMATTR InstName D3
SYMATTR Value VS-E5TX0812
SYMBOL diode 1696 -224 R180
WINDOW 0 24 64 Left 2
WINDOW 3 24 0 Left 2
SYMATTR InstName D4
SYMATTR Value VS-E5TX0812
SYMBOL GAN7R0-150LBE 288 64 R0
SYMATTR InstName U3
SYMBOL GAN7R0-150LBE 784 64 R0
SYMATTR InstName U4
SYMBOL 1EDN7550B -1488 -272 R0
SYMATTR InstName U1
SYMBOL res -1664 -240 R90
WINDOW 0 0 56 VBottom 2
WINDOW 3 32 56 VTop 2
SYMATTR InstName R2
SYMATTR Value 33k
SYMBOL res -1664 -336 R90
WINDOW 0 0 56 VBottom 2
WINDOW 3 32 56 VTop 2
SYMATTR InstName R3
SYMATTR Value 33k
SYMBOL voltage -1600 -160 R0
SYMATTR InstName V4
SYMATTR Value 5V
SYMBOL res -1152 -336 R90
WINDOW 0 0 56 VBottom 2
WINDOW 3 32 56 VTop 2
SYMATTR InstName R4
SYMATTR Value {R_Gate_SNK}
SYMBOL res -1152 -240 R90
WINDOW 0 0 56 VBottom 2
WINDOW 3 32 56 VTop 2
SYMATTR InstName R5
SYMATTR Value {R_Gate_SRC}
SYMBOL 1EDN7550B -1488 80 R0
SYMATTR InstName U2
SYMBOL res -1664 112 R90
WINDOW 0 0 56 VBottom 2
WINDOW 3 32 56 VTop 2
SYMATTR InstName R6
SYMATTR Value 33k
SYMBOL res -1664 16 R90
WINDOW 0 0 56 VBottom 2
WINDOW 3 32 56 VTop 2
SYMATTR InstName R7
SYMATTR Value 33k
SYMBOL voltage -1600 192 R0
SYMATTR InstName V5
SYMATTR Value 5V
SYMBOL res -1152 16 R90
WINDOW 0 0 56 VBottom 2
WINDOW 3 32 56 VTop 2
SYMATTR InstName R8
SYMATTR Value {R_Gate_SNK}
SYMBOL res -1152 112 R90
WINDOW 0 0 56 VBottom 2
WINDOW 3 32 56 VTop 2
SYMATTR InstName R9
SYMATTR Value {R_Gate_SRC}
SYMBOL voltage 1856 -48 R0
WINDOW 123 0 0 Left 0
WINDOW 39 24 124 Left 2
SYMATTR SpiceLine Rser=1
SYMATTR InstName V6
SYMATTR Value 100
SYMBOL diode 1840 -224 R0
SYMATTR InstName D5
SYMBOL cap 2016 -112 R0
SYMATTR InstName C2
SYMATTR Value 22µ
SYMBOL diode -256 -48 R90
WINDOW 0 0 32 VBottom 2
WINDOW 3 32 32 VTop 2
SYMATTR InstName D6
SYMBOL current -320 -176 R270
WINDOW 0 32 40 VTop 2
WINDOW 3 -32 40 VBottom 2
WINDOW 123 0 0 Left 0
WINDOW 39 0 0 Left 0
SYMATTR InstName I1
SYMATTR Value 12
TEXT 960 -376 Left 2 !.param N=3
TEXT 960 -352 Left 2 !.param Lp=100mH
TEXT 960 -328 Left 2 !.param Ls=Lp*N**2
TEXT 960 -296 Left 2 !K1 L3 L4 1
TEXT 1608 -488 Left 2 !.model IdealDiode D(Ron=1u Roff=1Meg Vfwd=0.1 Vrev=1Meg)
TEXT -2368 -592 Left 2 ;Gate Driver
TEXT -2352 -552 Left 2 !.param ts=10n
TEXT -2352 -520 Left 2 !.param Vgs=3.3V
TEXT -1264 368 Left 2 ;GaN FET
TEXT -416 -544 Left 2 !.tran 0 500ms 0
TEXT -1256 448 Left 2 !.inc GAN080-650EBE_LTspice.lib
TEXT -440 -592 Left 2 ;Simulation Parameter
TEXT -1256 416 Left 2 ;Datasheet: https://www.nexperia.com/products/gan-fets/GAN080-650EBE.html
TEXT -2352 -432 Left 2 ;The two driving signals used to command the two gates are 180 degree phase shifted with respect to each other\nand always have a duty cycle >0.5.
TEXT 952 -416 Left 2 ;Transformer Settings
TEXT -2024 -552 Left 2 !.param D=6.0u
TEXT -1256 504 Left 2 ;Datasheet: https://assets.nexperia.com/documents/data-sheet/GAN7R0-150LBE.pdf
TEXT -1256 536 Left 2 !.inc GAN7R0-150LBE_LTspice.lib
TEXT -2352 -464 Left 2 !.inc 1EDN7550B.lib
TEXT -2352 -488 Left 2 ;Datasheet: https://www.infineon.com/dgdl/Infineon-1EDN7550B-DataSheet-v02_03-EN.pdf?fileId=5546d46262b31d2e01635d9799ef264f
TEXT -1744 -552 Left 2 !.param R_Gate_SNK=0.5
TEXT -1256 688 Left 2 !.param L_Source=0.2nH
TEXT -1256 576 Left 2 ;To find out proper gate resistor for driving the GaN FET we need to model the\nparasitic inductance of the GaN FET. To get an idea of the size of the inductance,\nwe take a value given for a comparable GaN FET named here:\nhttps://epc-co.com/epc/Portals/0/epc/documents/presentations/EPC_Paralleling_High_Speed_GAN_Reusch.pdf
TEXT -1744 -528 Left 2 !.param R_Gate_SRC=2.2
RECTANGLE Normal 176 -400 -528 -576 2
RECTANGLE Normal 1296 -240 944 -400 2
RECTANGLE Normal -544 336 -2400 -576 2
RECTANGLE Normal 96 800 -1264 384 2
