Version 4
SHEET 1 4648 30344
WIRE 1680 -336 1456 -336
WIRE 1856 -336 1680 -336
WIRE 1456 -288 1456 -336
WIRE 1680 -288 1680 -336
WIRE -1008 -240 -1120 -240
WIRE -1120 -176 -1120 -240
WIRE 48 -176 -128 -176
WIRE 800 -176 800 -208
WIRE 800 -176 128 -176
WIRE 1088 -176 800 -176
WIRE 1456 -176 1456 -224
WIRE 1456 -176 1248 -176
WIRE 1856 -160 1856 -336
WIRE 1088 -144 1088 -176
WIRE 1248 -144 1248 -176
WIRE -1120 -64 -1120 -96
WIRE -128 -32 -128 -176
WIRE -128 -32 -464 -32
WIRE 48 -32 -128 -32
WIRE 304 -32 304 -64
WIRE 304 -32 128 -32
WIRE 1088 -32 1088 -64
WIRE 1088 -32 304 -32
WIRE 1248 -32 1248 -64
WIRE 1680 -32 1680 -224
WIRE 1680 -32 1248 -32
WIRE -1008 0 -1120 0
WIRE 304 32 304 -32
WIRE 432 32 304 32
WIRE 800 32 800 -176
WIRE 928 32 800 32
WIRE 1456 32 1456 -176
WIRE 1680 32 1680 -32
WIRE -464 48 -464 -32
WIRE 304 48 304 32
WIRE 800 48 800 32
WIRE -1120 64 -1120 0
WIRE -128 64 -128 -32
WIRE 432 64 432 32
WIRE 928 64 928 32
WIRE -1120 176 -1120 144
WIRE 1456 176 1456 96
WIRE 1648 176 1456 176
WIRE 1680 176 1680 96
WIRE 1680 176 1648 176
WIRE 1856 176 1856 -80
WIRE 1856 176 1680 176
WIRE 1648 224 1648 176
WIRE -464 240 -464 128
WIRE -224 240 -464 240
WIRE -128 240 -128 128
WIRE -128 240 -224 240
WIRE 304 240 304 208
WIRE 304 240 -128 240
WIRE 432 240 432 128
WIRE 432 240 304 240
WIRE 800 240 800 208
WIRE 800 240 432 240
WIRE 928 240 928 128
WIRE 928 240 800 240
WIRE -224 288 -224 240
FLAG -224 288 0
FLAG 1648 224 0
FLAG -1120 176 0
FLAG -1008 0 pwm2
FLAG -1120 -64 0
FLAG -1008 -240 pwm1
FLAG 208 128 pwm1
FLAG 704 128 pwm2
FLAG 304 -64 ds1
FLAG 800 -208 ds2
FLAG 1856 -336 out
SYMBOL cap -144 64 R0
SYMATTR InstName C1
SYMATTR Value 14µF
SYMBOL ind 32 -48 M90
WINDOW 0 5 56 VBottom 2
WINDOW 3 32 56 VTop 2
SYMATTR InstName L1
SYMATTR Value 320µH
SYMBOL ind 32 -192 M90
WINDOW 0 5 56 VBottom 2
WINDOW 3 32 56 VTop 2
SYMATTR InstName L2
SYMATTR Value 320µH
SYMBOL ind2 1264 -160 M0
WINDOW 0 39 37 Left 2
WINDOW 3 37 80 Left 2
SYMATTR InstName L4
SYMATTR Value {Ls}
SYMATTR Type ind
SYMBOL diode 1472 -224 R180
WINDOW 0 24 64 Left 2
WINDOW 3 24 0 Left 2
SYMATTR InstName D1
SYMATTR Value VS-E5TX0812
SYMBOL diode 1472 96 R180
WINDOW 0 24 64 Left 2
WINDOW 3 24 0 Left 2
SYMATTR InstName D2
SYMATTR Value VS-E5TX0812
SYMBOL res 1840 -176 R0
SYMATTR InstName R1
SYMATTR Value 200
SYMBOL voltage -1120 48 R0
SYMATTR InstName V2
SYMATTR Value PULSE(0 {Vgs} 6u {ts} {ts} {D} 10u)
SYMBOL voltage -1120 -192 R0
SYMATTR InstName V3
SYMATTR Value PULSE(0 {Vgs} 1u {ts} {ts} {D} 10u)
SYMBOL voltage -464 32 R0
SYMATTR InstName V1
SYMATTR Value 40V
SYMBOL ind2 1072 -160 R0
SYMATTR InstName L3
SYMATTR Value {Lp}
SYMATTR Type ind
SYMBOL cap 416 64 R0
SYMATTR InstName C5
SYMATTR Value 1n
SYMBOL cap 912 64 R0
SYMATTR InstName C6
SYMATTR Value 1n
SYMBOL diode 1696 96 R180
WINDOW 0 24 64 Left 2
WINDOW 3 24 0 Left 2
SYMATTR InstName D3
SYMATTR Value VS-E5TX0812
SYMBOL diode 1696 -224 R180
WINDOW 0 24 64 Left 2
WINDOW 3 24 0 Left 2
SYMATTR InstName D4
SYMATTR Value VS-E5TX0812
SYMBOL GAN7R0-150LBE 288 128 R0
SYMATTR InstName U3
SYMBOL GAN7R0-150LBE 784 128 R0
SYMATTR InstName U4
TEXT 960 -376 Left 2 !.param N=3
TEXT 960 -352 Left 2 !.param Lp=100mH
TEXT 960 -328 Left 2 !.param Ls=Lp*N**2
TEXT 960 -296 Left 2 !K1 L3 L4 {1-1e-6}
TEXT 1608 -488 Left 2 !.model IdealDiode D(Ron=1u Roff=1Meg Vfwd=0.1 Vrev=1Meg)
TEXT -1272 -464 Left 2 ;Gate Driver
TEXT -1256 -416 Left 2 !.param ts=10n
TEXT -1256 -384 Left 2 !.param Vgs=5V
TEXT -1264 368 Left 2 ;GaN FET
TEXT -1248 -640 Left 2 !.tran 0 1m 0 10ns
TEXT -1256 448 Left 2 !.inc GAN080-650EBE_LTspice.lib
TEXT -1272 -688 Left 2 ;Simulation Parameter
TEXT -1256 416 Left 2 ;Datasheet: https://www.nexperia.com/products/gan-fets/GAN080-650EBE.html
TEXT -1256 -352 Left 2 ;The two driving signals used to command the two gates\nare180 degree phase shifted with respect to each other\nand always have a duty cycle >0.5.
TEXT -1256 648 Left 2 !.inc IFX_CoolGaN_Gen1_600V.lib
TEXT -1256 624 Left 2 ;Datasheet: https://www.infineon.com/cms/de/product/power/gan-hemt-gallium-nitride-transistor/igld60r070d1/
TEXT -1256 600 Left 2 ;I don't understand why this can't be used:
TEXT 952 -416 Left 2 ;Transformer Settings
TEXT -928 -416 Left 2 !.param D=6u
TEXT -1256 504 Left 2 ;Datasheet: https://assets.nexperia.com/documents/data-sheet/GAN7R0-150LBE.pdf
TEXT -1256 536 Left 2 !.inc GAN7R0-150LBE_LTspice.lib
RECTANGLE Normal -544 224 -1280 -448 2
RECTANGLE Normal -656 -496 -1280 -672 2
RECTANGLE Normal 240 688 -1280 384 2
RECTANGLE Normal 1296 -240 944 -400 2
