Version 4
SHEET 1 4648 30344
WIRE 1472 -320 1344 -320
WIRE 1600 -320 1472 -320
WIRE 1744 -320 1600 -320
WIRE 1344 -272 1344 -320
WIRE 1472 -272 1472 -320
WIRE -1008 -240 -1120 -240
WIRE -1120 -176 -1120 -240
WIRE 48 -176 -128 -176
WIRE 800 -176 128 -176
WIRE 1088 -176 800 -176
WIRE 1344 -176 1344 -208
WIRE 1344 -176 1248 -176
WIRE 1088 -144 1088 -176
WIRE 1248 -144 1248 -176
WIRE 1744 -144 1744 -320
WIRE 1600 -128 1600 -320
WIRE -1120 -64 -1120 -96
WIRE -128 -32 -128 -176
WIRE -128 -32 -336 -32
WIRE 48 -32 -128 -32
WIRE 304 -32 128 -32
WIRE 1088 -32 1088 -64
WIRE 1088 -32 304 -32
WIRE 1248 -32 1248 -64
WIRE 1472 -32 1472 -208
WIRE 1472 -32 1248 -32
WIRE -1008 0 -1120 0
WIRE -336 48 -336 -32
WIRE 304 48 304 -32
WIRE 800 48 800 -176
WIRE 1344 48 1344 -176
WIRE 1472 48 1472 -32
WIRE -1120 64 -1120 0
WIRE -128 64 -128 -32
WIRE 1344 112 1344 96
WIRE -1120 176 -1120 144
WIRE 1344 192 1344 112
WIRE 1472 192 1472 112
WIRE 1472 192 1344 192
WIRE 1536 192 1472 192
WIRE 1600 192 1600 -64
WIRE 1600 192 1536 192
WIRE 1744 192 1744 -64
WIRE 1744 192 1600 192
WIRE -336 240 -336 128
WIRE -224 240 -336 240
WIRE -128 240 -128 128
WIRE -128 240 -224 240
WIRE 304 240 304 208
WIRE 304 240 -128 240
WIRE 800 240 800 208
WIRE 800 240 304 240
WIRE 1536 240 1536 192
WIRE -224 288 -224 240
FLAG -224 288 0
FLAG 1536 240 0
FLAG -1120 176 0
FLAG -1008 0 pwm2
FLAG -1120 -64 0
FLAG -1008 -240 pwm1
FLAG 208 128 pwm1
FLAG 704 128 pwm2
SYMBOL voltage -336 32 R0
SYMATTR InstName V1
SYMATTR Value 40V
SYMBOL cap -144 64 R0
SYMATTR InstName C1
SYMATTR Value 14µF
SYMBOL ind 144 -16 M270
WINDOW 0 32 56 VTop 2
WINDOW 3 5 56 VBottom 2
SYMATTR InstName L1
SYMATTR Value 640µH
SYMBOL ind 144 -160 M270
WINDOW 0 32 56 VTop 2
WINDOW 3 5 56 VBottom 2
SYMATTR InstName L2
SYMATTR Value 640µH
SYMBOL ind2 1072 -160 R0
SYMATTR InstName L3
SYMATTR Value {Lp}
SYMATTR Type ind
SYMBOL ind2 1264 -160 M0
WINDOW 0 39 37 Left 2
WINDOW 3 37 80 Left 2
SYMATTR InstName L4
SYMATTR Value {Ls}
SYMATTR Type ind
SYMBOL diode 1360 -208 R180
WINDOW 0 24 64 Left 2
WINDOW 3 24 0 Left 2
SYMATTR InstName D1
SYMBOL cap 1456 -272 R0
SYMATTR InstName C2
SYMATTR Value 2.2µF
SYMBOL diode 1360 112 R180
WINDOW 0 24 64 Left 2
WINDOW 3 24 0 Left 2
SYMATTR InstName D2
SYMBOL cap 1456 48 R0
SYMATTR InstName C3
SYMATTR Value 2.2µF
SYMBOL cap 1584 -128 R0
SYMATTR InstName C4
SYMATTR Value 84µF
SYMBOL res 1728 -160 R0
SYMATTR InstName R1
SYMATTR Value 100
SYMBOL voltage -1120 48 R0
SYMATTR InstName V2
SYMATTR Value PULSE(0 {Vgs} 6u {ts} {ts} 2.5u 10u)
SYMBOL voltage -1120 -192 R0
SYMATTR InstName V3
SYMATTR Value PULSE(0 {Vgs} 1u {ts} {ts} 2.5u 10u)
SYMBOL GAN080-650EBE 288 128 R0
SYMATTR InstName U1
SYMBOL GAN080-650EBE 784 128 R0
SYMATTR InstName U2
TEXT 1048 -288 Left 2 !.param N=4
TEXT 1048 -264 Left 2 !.param Lp=100mH
TEXT 1048 -240 Left 2 !.param Ls=Lp*N
TEXT 1048 -208 Left 2 !K1 L3 L4 1
TEXT 1272 -432 Left 2 !.model IdealDiode D(Ron=1u Roff=1Meg Vfwd=0.1 Vrev=1Meg)
TEXT -1272 -464 Left 2 ;Gate Driver
TEXT -1256 -416 Left 2 !.param ts=10n
TEXT -1256 -384 Left 2 !.param Vgs=5V
TEXT -1264 368 Left 2 ;GaN FET
TEXT -1248 -640 Left 2 !.tran 100u
TEXT -1256 448 Left 2 !.inc GAN080-650EBE_LTspice.lib
TEXT -1272 -688 Left 2 ;Simulation Parameter
TEXT -1256 416 Left 2 ;Datasheet: https://www.nexperia.com/products/gan-fets/GAN080-650EBE.html
RECTANGLE Normal -544 224 -1280 -448 2
RECTANGLE Normal -656 -496 -1280 -672 2
RECTANGLE Normal -96 608 -1280 384 2
