Version 4
SHEET 1 1116 680
FLAG 656 224 0
SYMBOL AutoGenerated\\CoolGaN_tech0 448 112 R0
SYMATTR InstName U1
TEXT 728 -96 Left 2 !.inc IFX_CoolGaN_Gen1_600V.lib
