Version 4
SHEET 1 4648 30344
WIRE 1584 -336 1456 -336
WIRE 1712 -336 1584 -336
WIRE 1856 -336 1712 -336
WIRE 1456 -288 1456 -336
WIRE 1584 -288 1584 -336
WIRE -1008 -240 -1120 -240
WIRE -1120 -176 -1120 -240
WIRE 48 -176 -128 -176
WIRE 800 -176 128 -176
WIRE 1088 -176 800 -176
WIRE 1456 -176 1456 -224
WIRE 1456 -176 1248 -176
WIRE 1856 -160 1856 -336
WIRE 1088 -144 1088 -176
WIRE 1248 -144 1248 -176
WIRE 1712 -144 1712 -336
WIRE -1120 -64 -1120 -96
WIRE -128 -32 -128 -176
WIRE -128 -32 -336 -32
WIRE 48 -32 -128 -32
WIRE 304 -32 128 -32
WIRE 1088 -32 1088 -64
WIRE 1088 -32 304 -32
WIRE 1248 -32 1248 -64
WIRE 1584 -32 1584 -224
WIRE 1584 -32 1248 -32
WIRE -1008 0 -1120 0
WIRE 1456 32 1456 -176
WIRE 1584 32 1584 -32
WIRE -336 48 -336 -32
WIRE 304 48 304 -32
WIRE 800 48 800 -176
WIRE -1120 64 -1120 0
WIRE -128 64 -128 -32
WIRE -1120 176 -1120 144
WIRE 1456 176 1456 96
WIRE 1584 176 1584 96
WIRE 1584 176 1456 176
WIRE 1648 176 1584 176
WIRE 1712 176 1712 -80
WIRE 1712 176 1648 176
WIRE 1856 176 1856 -80
WIRE 1856 176 1712 176
WIRE 1648 224 1648 176
WIRE -336 240 -336 128
WIRE -224 240 -336 240
WIRE -128 240 -128 128
WIRE -128 240 -224 240
WIRE 304 240 304 208
WIRE 304 240 -128 240
WIRE 800 240 800 208
WIRE 800 240 304 240
WIRE -224 288 -224 240
FLAG -224 288 0
FLAG 1648 224 0
FLAG -1120 176 0
FLAG -1008 0 pwm2
FLAG -1120 -64 0
FLAG -1008 -240 pwm1
FLAG 208 128 pwm1
FLAG 704 128 pwm2
SYMBOL cap -144 64 R0
SYMATTR InstName C1
SYMATTR Value 14µF
SYMBOL ind 144 -16 M270
WINDOW 0 32 56 VTop 2
WINDOW 3 5 56 VBottom 2
SYMATTR InstName L1
SYMATTR Value 640µH
SYMBOL ind 144 -160 M270
WINDOW 0 32 56 VTop 2
WINDOW 3 5 56 VBottom 2
SYMATTR InstName L2
SYMATTR Value 640µH
SYMBOL ind2 1072 -160 R0
SYMATTR InstName L3
SYMATTR Value {Lp}
SYMATTR Type ind
SYMBOL ind2 1264 -160 M0
WINDOW 0 39 37 Left 2
WINDOW 3 37 80 Left 2
SYMATTR InstName L4
SYMATTR Value {Ls}
SYMATTR Type ind
SYMBOL diode 1472 -224 R180
WINDOW 0 24 64 Left 2
WINDOW 3 24 0 Left 2
SYMATTR InstName D1
SYMBOL cap 1568 -288 R0
SYMATTR InstName C2
SYMATTR Value 2.2µF
SYMBOL diode 1472 96 R180
WINDOW 0 24 64 Left 2
WINDOW 3 24 0 Left 2
SYMATTR InstName D2
SYMBOL cap 1568 32 R0
SYMATTR InstName C3
SYMATTR Value 2.2µF
SYMBOL cap 1696 -144 R0
SYMATTR InstName C4
SYMATTR Value 84µF
SYMBOL res 1840 -176 R0
SYMATTR InstName R1
SYMATTR Value 1k
SYMBOL voltage -1120 48 R0
SYMATTR InstName V2
SYMATTR Value PULSE(0 {Vgs} 6u {ts} {ts} 6u 10u)
SYMBOL voltage -1120 -192 R0
SYMATTR InstName V3
SYMATTR Value PULSE(0 {Vgs} 1u {ts} {ts} 6u 10u)
SYMBOL GAN080-650EBE 288 128 R0
SYMATTR InstName U1
SYMBOL GAN080-650EBE 784 128 R0
SYMATTR InstName U2
SYMBOL current -336 48 R0
SYMATTR InstName I1
SYMATTR Value -8A
SYMBOL CoolGaN_tech0 672 544 R0
SYMATTR InstName U3
TEXT 1048 -288 Left 2 !.param N=4
TEXT 1048 -264 Left 2 !.param Lp=100mH
TEXT 1048 -240 Left 2 !.param Ls=Lp*N
TEXT 1048 -208 Left 2 !K1 L3 L4 {1-1e-6}
TEXT 1272 -432 Left 2 !.model IdealDiode D(Ron=1u Roff=1Meg Vfwd=0.1 Vrev=1Meg)
TEXT -1272 -464 Left 2 ;Gate Driver
TEXT -1256 -416 Left 2 !.param ts=10n
TEXT -1256 -384 Left 2 !.param Vgs=5V
TEXT -1264 368 Left 2 ;GaN FET
TEXT -1248 -640 Left 2 !.tran 0 100u 0 10ns
TEXT -1256 448 Left 2 !.inc GAN080-650EBE_LTspice.lib
TEXT -1272 -688 Left 2 ;Simulation Parameter
TEXT -1256 416 Left 2 ;Datasheet: https://www.nexperia.com/products/gan-fets/GAN080-650EBE.html
TEXT -1256 -352 Left 2 ;The two driving signals used to command the two gates\nare180 degree phase shifted with respect to each other\nand always have a duty cycle >0.5.
TEXT -1256 552 Left 2 !.inc IFX_CoolGaN_Gen1_600V.lib
TEXT -1256 528 Left 2 ;Datasheet: https://www.infineon.com/cms/de/product/power/gan-hemt-gallium-nitride-transistor/igld60r070d1/
TEXT 456 440 Left 2 ;I don't understand why this can't be used:
RECTANGLE Normal -544 224 -1280 -448 2
RECTANGLE Normal -656 -496 -1280 -672 2
RECTANGLE Normal 240 688 -1280 384 2
