Version 4
SHEET 1 1592 692
WIRE 80 -224 48 -224
WIRE 176 -224 160 -224
WIRE 176 -208 176 -224
WIRE 176 -128 128 -128
WIRE 128 -112 128 -128
WIRE -48 16 -64 16
WIRE 64 16 32 16
WIRE 640 16 624 16
WIRE 752 16 720 16
WIRE 976 16 880 16
WIRE 1264 16 1248 16
WIRE 1376 16 1344 16
WIRE 1536 16 1504 16
WIRE -352 48 -464 48
WIRE -464 64 -464 48
WIRE 64 112 16 112
WIRE 752 112 704 112
WIRE 976 112 976 16
WIRE 976 112 880 112
WIRE 1360 112 1328 112
WIRE 1376 112 1360 112
WIRE 1536 112 1536 16
WIRE 1536 112 1504 112
WIRE 16 128 16 112
WIRE 704 128 704 112
WIRE 1328 128 1328 112
WIRE 752 144 720 144
WIRE 976 144 880 144
WIRE 1344 144 1344 16
WIRE 1376 144 1344 144
WIRE -464 176 -464 144
WIRE 720 240 720 144
WIRE 752 240 720 240
WIRE 976 240 976 144
WIRE 976 240 880 240
WIRE 1360 240 1360 112
WIRE 1376 240 1360 240
WIRE -32 352 -80 352
WIRE 96 352 48 352
WIRE 208 352 96 352
WIRE 320 352 208 352
WIRE 448 352 320 352
WIRE 640 352 448 352
WIRE 96 368 96 352
WIRE 208 368 208 352
WIRE 448 416 448 352
WIRE 320 432 320 352
WIRE 96 464 96 448
WIRE 160 464 96 464
WIRE 208 464 208 448
WIRE 208 464 160 464
WIRE 96 480 96 464
WIRE 96 560 48 560
WIRE 320 560 320 496
WIRE 320 560 96 560
WIRE 448 560 448 496
WIRE 448 560 320 560
WIRE 48 576 48 560
WIRE 448 576 448 560
WIRE 640 576 640 352
WIRE 448 672 448 656
WIRE 640 672 640 656
FLAG -464 176 0
FLAG 160 464 4a
FLAG 640 672 0
FLAG 448 672 0
FLAG 128 -112 0
FLAG -352 48 V_test
FLAG 48 -224 V_test
FLAG 48 576 0
FLAG -80 352 V_test
FLAG -64 16 V_test
FLAG 16 128 0
FLAG 624 16 V_test
FLAG 704 128 0
FLAG 1248 16 V_test
FLAG 1328 128 0
SYMBOL voltage -464 48 R0
WINDOW 123 0 0 Left 0
WINDOW 39 0 0 Left 0
SYMATTR InstName V1
SYMATTR Value PULSE(0 1 1u 1n 1n 1u 5u)
SYMBOL ind2 160 -224 R0
SYMATTR InstName L1
SYMATTR Value 500µ
SYMATTR Type ind
SYMBOL res 64 -208 R270
WINDOW 0 32 56 VTop 2
WINDOW 3 0 56 VBottom 2
SYMATTR InstName R1
SYMATTR Value 1n
SYMBOL res 192 352 R0
SYMATTR InstName Rlkg
SYMATTR Value 26605.14
SYMBOL ind 80 352 R0
SYMATTR InstName L_Lkg
SYMATTR Value 95µ
SYMATTR SpiceLine Rser=0.01m
SYMBOL ind 80 464 R0
SYMATTR InstName L_pri1
SYMATTR Value 405µ
SYMATTR SpiceLine Rser=123m
SYMBOL cap 304 432 R0
SYMATTR InstName Cpri1
SYMATTR Value 49.87p
SYMBOL res 432 400 R0
SYMATTR InstName Rdmp1
SYMATTR Value 158320.56
SYMBOL res 624 560 R0
SYMATTR InstName Rg3
SYMATTR Value 20Meg
SYMBOL res 432 560 R0
SYMATTR InstName Rg7
SYMATTR Value 20Meg
SYMBOL res -48 368 R270
WINDOW 0 32 56 VTop 2
WINDOW 3 0 56 VBottom 2
SYMATTR InstName R5
SYMATTR Value 1n
SYMBOL 760895631 64 16 R0
SYMATTR InstName T1
SYMBOL res -64 32 R270
WINDOW 0 32 56 VTop 2
WINDOW 3 0 56 VBottom 2
SYMATTR InstName Pri_Open
SYMATTR Value 1n
SYMBOL 760895631 752 16 R0
SYMATTR InstName T2
SYMBOL res 624 32 R270
WINDOW 0 32 56 VTop 2
WINDOW 3 0 56 VBottom 2
SYMATTR InstName Pri_Short
SYMATTR Value 1n
SYMBOL 760895631 1504 16 M0
SYMATTR InstName T3
SYMBOL res 1248 32 R270
WINDOW 0 32 56 VTop 2
WINDOW 3 0 56 VBottom 2
SYMATTR InstName Sec_Open
SYMATTR Value 1n
TEXT -496 296 Left 2 !.tran 10u
TEXT 56 336 Left 2 ;4
TEXT 56 544 Left 2 ;2
TEXT -480 -160 Left 2 ;L = V * t_on / I_L
