Version 4
SHEET 1 1484 1172
WIRE -1472 256 -1520 256
WIRE -1520 288 -1520 256
WIRE -1520 400 -1520 368
WIRE -1248 528 -1328 528
WIRE -1216 528 -1248 528
WIRE -640 528 -752 528
WIRE -528 528 -640 528
WIRE -448 528 -528 528
WIRE -1456 560 -1488 560
WIRE -1280 560 -1328 560
WIRE -1216 560 -1216 528
WIRE -880 560 -912 560
WIRE -704 560 -752 560
WIRE -640 560 -640 528
WIRE -528 560 -528 528
WIRE -704 656 -704 560
WIRE -640 656 -640 624
WIRE -528 656 -528 640
WIRE -1280 672 -1280 560
WIRE -1216 672 -1216 640
WIRE -1216 672 -1280 672
WIRE -1280 704 -1280 672
FLAG -1520 400 0
FLAG -1280 704 0
FLAG -1472 256 illu
FLAG -1488 560 illu
FLAG -1248 528 pv1
FLAG -704 656 0
FLAG -912 560 illu
FLAG -448 528 pv2
FLAG -640 656 0
FLAG -528 656 0
SYMBOL PV_cplx -1392 544 R0
SYMATTR InstName U1
SYMATTR Value SEP300W
SYMBOL voltage -1520 272 R0
WINDOW 123 0 0 Left 0
WINDOW 39 0 0 Left 0
SYMATTR InstName V1
SYMATTR Value 1000
SYMBOL current -1216 560 R0
WINDOW 123 0 0 Left 0
WINDOW 39 0 0 Left 0
SYMATTR InstName I1
SYMATTR Value PWL(0 0 200m {Isc})
SYMBOL PV_cplx -816 544 R0
SYMATTR InstName U2
SYMATTR Value SEP300W
SYMBOL cap -656 560 R0
SYMATTR InstName C1
SYMATTR Value {Cp}
SYMBOL bi -528 560 R0
SYMATTR InstName B1
SYMATTR Value I=Imp*abs(sin(2*pi*50*time))
TEXT -128 16 Left 2 !*Complex PhotoVoltaic panel library 06.2022 Fesz\n*\n.subckt SEP300W 1 2 3 ; http://sunceco.com/wp-content/uploads/2017/01/SEP300-320.pdf\nxu1 1 2 3 PV_cplx voc=44.71 isc=8.947 vmp=37.23 imp=8.06 tk_voc=-0.0034 tk_isc=0.0005\n.ends\n.subckt CL_SM10P 1 2 3; https://www.tme.eu/Document/f73597b9cc5801bdd87f2781fa4ee352/CL-SM10P.pdf\nxu 1 2 3 PV_cplx voc=22.6 isc=0.59 vmp=18.2 imp=0.55 tk_voc=-0.004 tk_isc=0.00065\n.ends\n.subckt MP3_25 1 2 3 ; https://ro.mouser.com/datasheet/2/1009/Electronic_Component_Spec_Sheet_Cla_77DEA84523C82-1658524.pdf\nxu 1 2 3 PV_cplx voc=4.1 isc=0.035 vmp=3 imp=0.007 tk_voc=-0.004 tk_isc=0.00065\n.ends\n*\n*PhotoVoltaic Cell model\n*\n* necessary parameters\n*voc - open circuit voltage\n*isc - short circuit current\n*vmp - maximum power voltage\n*imp maximum power current\n*tk_voc - open circuit voltage temperature coeffiecient\n*tk_isc - short circuit current temperature coefficient\n*\n.subckt PV_cplx v+ v- illu \nD1 N002 v- pvdiode2\nRsh N002 v- R=rsh_t\nRs N002 v+ R=rs_t\nBph v- N002 I=ipv_t*v(illu)/1000\nR5 illu 0 100meg\n.param voc_t voc*(1-tk_voc*(25-temp))\n.param isc_t isc*(1-tk_isc*(25-temp))\n.param vmp_t vmp*(1-tk_voc*(25-temp))\n.param imp_t imp*(1-tk_isc*(25-temp))\n.param rs_t (voc_t-vmp_t)/(16*imp_t) ; 2 instead of 16 in original source\n.param rsh_t 5*vmp_t/(isc_t-imp_t) ; 1 instead of 5 in original source\n.model PVDiode2 D(Is=io_t N=a_n Tnom=temp)\n.param io_t ((rs_t+rsh_t)*isc_t-voc_t)/(rsh_t*exp(voc_t/(a_n*vt_t)))\n.param vt_t (1.38e-23*(273+temp))/1.6e-19\n.param ipv_t isc_t*(rsh_t+rs_t)/rsh_t\n.param a_n 1.3*voc/0.7\n*\n.ends
TEXT -1554 780 Left 2 !.tran 200m startup
TEXT -1376 320 Left 2 !.param Imp=8.06
TEXT -1376 352 Left 2 !.step param Cp list 0 7m 8m 9m 10m
TEXT -1376 288 Left 2 !.param Isc=8.9
